/*--------------------------------*- C++ -*----------------------------------*\
| =========                 |                                                 |
| \\      /  F ield         | OpenFOAM: The Open Source CFD Toolbox           |
|  \\    /   O peration     | Version:  v2006                                 |
|   \\  /    A nd           | Website:  www.openfoam.com                      |
|    \\/     M anipulation  |                                                 |
\*---------------------------------------------------------------------------*/
FoamFile
{
    version     2.0;
    format      ascii;
    class       polyBoundaryMesh;
    location    "constant/polyMesh";
    object      boundary;
}
// * * * * * * * * * * * * * * * * * * * * * * * * * * * * * * * * * * * * * //

6
(
    right
    {
        type            wall;
        inGroups        1(wall);
        nFaces          10000;
        startFace       2970000;
    }
    left
    {
        type            wall;
        inGroups        1(wall);
        nFaces          10000;
        startFace       2980000;
    }
    bottom
    {
        type            wall;
        inGroups        1(wall);
        nFaces          10000;
        startFace       2990000;
    }
    top
    {
        type            wall;
        inGroups        1(wall);
        nFaces          10000;
        startFace       3000000;
    }
    front
    {
        type            empty;
        inGroups        1(empty);
        nFaces          10000;
        startFace       3010000;
    }
    back
    {
        type            empty;
        inGroups        1(empty);
        nFaces          10000;
        startFace       3020000;
    }
)

// ************************************************************************* //
